
---------- Begin Simulation Statistics ----------
sim_seconds                                  0.067764                       # Number of seconds simulated
sim_ticks                                 67763982500                       # Number of ticks simulated
final_tick                                67763982500                       # Number of ticks from beginning of simulation (restored from checkpoints and never reset)
sim_freq                                 1000000000000                       # Frequency of simulated ticks
host_inst_rate                                 560365                       # Simulator instruction rate (inst/s)
host_op_rate                                  1055085                       # Simulator op (including micro ops) rate (op/s)
host_tick_rate                             6358148760                       # Simulator tick rate (ticks/s)
host_mem_usage                                1877176                       # Number of bytes of host memory used
host_seconds                                    10.66                       # Real time elapsed on the host
sim_insts                                     5972249                       # Number of instructions simulated
sim_ops                                      11244888                       # Number of ops (including micro ops) simulated
system.voltage_domain.voltage                       1                       # Voltage in Volts
system.clk_domain.clock                          1000                       # Clock period in ticks
system.mem_ctrls.pwrStateResidencyTicks::UNDEFINED  67763982500                       # Cumulative time (in ticks) in various power states
system.mem_ctrls.bytes_read::.writebacks           32                       # Number of bytes read from this memory
system.mem_ctrls.bytes_read::.cpu.inst          52224                       # Number of bytes read from this memory
system.mem_ctrls.bytes_read::.cpu.data          68480                       # Number of bytes read from this memory
system.mem_ctrls.bytes_read::total             120736                       # Number of bytes read from this memory
system.mem_ctrls.bytes_inst_read::.cpu.inst        52224                       # Number of instructions bytes read from this memory
system.mem_ctrls.bytes_inst_read::total         52224                       # Number of instructions bytes read from this memory
system.mem_ctrls.bytes_written::.writebacks           16                       # Number of bytes written to this memory
system.mem_ctrls.bytes_written::total              16                       # Number of bytes written to this memory
system.mem_ctrls.num_reads::.writebacks             4                       # Number of read requests responded to by this memory
system.mem_ctrls.num_reads::.cpu.inst             816                       # Number of read requests responded to by this memory
system.mem_ctrls.num_reads::.cpu.data            1070                       # Number of read requests responded to by this memory
system.mem_ctrls.num_reads::total                1890                       # Number of read requests responded to by this memory
system.mem_ctrls.num_writes::.writebacks            2                       # Number of write requests responded to by this memory
system.mem_ctrls.num_writes::total                  2                       # Number of write requests responded to by this memory
system.mem_ctrls.bw_read::.writebacks             472                       # Total read bandwidth from this memory (bytes/s)
system.mem_ctrls.bw_read::.cpu.inst            770675                       # Total read bandwidth from this memory (bytes/s)
system.mem_ctrls.bw_read::.cpu.data           1010566                       # Total read bandwidth from this memory (bytes/s)
system.mem_ctrls.bw_read::total               1781713                       # Total read bandwidth from this memory (bytes/s)
system.mem_ctrls.bw_inst_read::.cpu.inst       770675                       # Instruction read bandwidth from this memory (bytes/s)
system.mem_ctrls.bw_inst_read::total           770675                       # Instruction read bandwidth from this memory (bytes/s)
system.mem_ctrls.bw_write::.writebacks            236                       # Write bandwidth from this memory (bytes/s)
system.mem_ctrls.bw_write::total                  236                       # Write bandwidth from this memory (bytes/s)
system.mem_ctrls.bw_total::.writebacks            708                       # Total bandwidth to/from this memory (bytes/s)
system.mem_ctrls.bw_total::.cpu.inst           770675                       # Total bandwidth to/from this memory (bytes/s)
system.mem_ctrls.bw_total::.cpu.data          1010566                       # Total bandwidth to/from this memory (bytes/s)
system.mem_ctrls.bw_total::total              1781950                       # Total bandwidth to/from this memory (bytes/s)
system.mem_ctrls.avgPriority_.writebacks::samples         5.00                       # Average QoS priority value for accepted requests
system.mem_ctrls.avgPriority_.cpu.inst::samples       816.00                       # Average QoS priority value for accepted requests
system.mem_ctrls.avgPriority_.cpu.data::samples      1070.00                       # Average QoS priority value for accepted requests
system.mem_ctrls.priorityMinLatency      0.000000024750                       # per QoS priority minimum request to response latency (s)
system.mem_ctrls.priorityMaxLatency      0.000001099750                       # per QoS priority maximum request to response latency (s)
system.mem_ctrls.numReadWriteTurnArounds            0                       # Number of turnarounds from READ to WRITE
system.mem_ctrls.numWriteReadTurnArounds            0                       # Number of turnarounds from WRITE to READ
system.mem_ctrls.numStayReadState                4107                       # Number of times bus staying in READ state
system.mem_ctrls.numStayWriteState                  0                       # Number of times bus staying in WRITE state
system.mem_ctrls.readReqs                        1890                       # Number of read requests accepted
system.mem_ctrls.writeReqs                          2                       # Number of write requests accepted
system.mem_ctrls.readBursts                      1890                       # Number of DRAM read bursts, including those serviced by the write queue
system.mem_ctrls.writeBursts                        2                       # Number of DRAM write bursts, including those merged in the write queue
system.mem_ctrls.bytesReadDRAM                 120960                       # Total number of bytes read from DRAM
system.mem_ctrls.bytesReadWrQ                       0                       # Total number of bytes read from write queue
system.mem_ctrls.bytesWritten                       0                       # Total number of bytes written to DRAM
system.mem_ctrls.bytesReadSys                  120736                       # Total read bytes from the system interface side
system.mem_ctrls.bytesWrittenSys                   16                       # Total written bytes from the system interface side
system.mem_ctrls.servicedByWrQ                      0                       # Number of DRAM read bursts serviced by the write queue
system.mem_ctrls.mergedWrBursts                     1                       # Number of DRAM write bursts merged with an existing one
system.mem_ctrls.neitherReadNorWriteReqs            0                       # Number of requests that are neither read nor write
system.mem_ctrls.perBankRdBursts::0               394                       # Per bank write bursts
system.mem_ctrls.perBankRdBursts::1               204                       # Per bank write bursts
system.mem_ctrls.perBankRdBursts::2               341                       # Per bank write bursts
system.mem_ctrls.perBankRdBursts::3               276                       # Per bank write bursts
system.mem_ctrls.perBankRdBursts::4               244                       # Per bank write bursts
system.mem_ctrls.perBankRdBursts::5               141                       # Per bank write bursts
system.mem_ctrls.perBankRdBursts::6               156                       # Per bank write bursts
system.mem_ctrls.perBankRdBursts::7               134                       # Per bank write bursts
system.mem_ctrls.perBankWrBursts::0                 0                       # Per bank write bursts
system.mem_ctrls.perBankWrBursts::1                 0                       # Per bank write bursts
system.mem_ctrls.perBankWrBursts::2                 0                       # Per bank write bursts
system.mem_ctrls.perBankWrBursts::3                 0                       # Per bank write bursts
system.mem_ctrls.perBankWrBursts::4                 0                       # Per bank write bursts
system.mem_ctrls.perBankWrBursts::5                 0                       # Per bank write bursts
system.mem_ctrls.perBankWrBursts::6                 0                       # Per bank write bursts
system.mem_ctrls.perBankWrBursts::7                 0                       # Per bank write bursts
system.mem_ctrls.numRdRetry                         0                       # Number of times read queue was full causing retry
system.mem_ctrls.numWrRetry                         0                       # Number of times write queue was full causing retry
system.mem_ctrls.totGap                   67763902500                       # Total gap between requests
system.mem_ctrls.readPktSize::0                     0                       # Read request sizes (log2)
system.mem_ctrls.readPktSize::1                     0                       # Read request sizes (log2)
system.mem_ctrls.readPktSize::2                     0                       # Read request sizes (log2)
system.mem_ctrls.readPktSize::3                     4                       # Read request sizes (log2)
system.mem_ctrls.readPktSize::4                     0                       # Read request sizes (log2)
system.mem_ctrls.readPktSize::5                     0                       # Read request sizes (log2)
system.mem_ctrls.readPktSize::6                  1886                       # Read request sizes (log2)
system.mem_ctrls.writePktSize::0                    0                       # Write request sizes (log2)
system.mem_ctrls.writePktSize::1                    0                       # Write request sizes (log2)
system.mem_ctrls.writePktSize::2                    0                       # Write request sizes (log2)
system.mem_ctrls.writePktSize::3                    2                       # Write request sizes (log2)
system.mem_ctrls.writePktSize::4                    0                       # Write request sizes (log2)
system.mem_ctrls.writePktSize::5                    0                       # Write request sizes (log2)
system.mem_ctrls.writePktSize::6                    0                       # Write request sizes (log2)
system.mem_ctrls.rdQLenPdf::0                    1888                       # What read queue length does an incoming req see
system.mem_ctrls.rdQLenPdf::1                       2                       # What read queue length does an incoming req see
system.mem_ctrls.rdQLenPdf::2                       0                       # What read queue length does an incoming req see
system.mem_ctrls.rdQLenPdf::3                       0                       # What read queue length does an incoming req see
system.mem_ctrls.rdQLenPdf::4                       0                       # What read queue length does an incoming req see
system.mem_ctrls.rdQLenPdf::5                       0                       # What read queue length does an incoming req see
system.mem_ctrls.rdQLenPdf::6                       0                       # What read queue length does an incoming req see
system.mem_ctrls.rdQLenPdf::7                       0                       # What read queue length does an incoming req see
system.mem_ctrls.rdQLenPdf::8                       0                       # What read queue length does an incoming req see
system.mem_ctrls.rdQLenPdf::9                       0                       # What read queue length does an incoming req see
system.mem_ctrls.rdQLenPdf::10                      0                       # What read queue length does an incoming req see
system.mem_ctrls.rdQLenPdf::11                      0                       # What read queue length does an incoming req see
system.mem_ctrls.rdQLenPdf::12                      0                       # What read queue length does an incoming req see
system.mem_ctrls.rdQLenPdf::13                      0                       # What read queue length does an incoming req see
system.mem_ctrls.rdQLenPdf::14                      0                       # What read queue length does an incoming req see
system.mem_ctrls.rdQLenPdf::15                      0                       # What read queue length does an incoming req see
system.mem_ctrls.rdQLenPdf::16                      0                       # What read queue length does an incoming req see
system.mem_ctrls.rdQLenPdf::17                      0                       # What read queue length does an incoming req see
system.mem_ctrls.rdQLenPdf::18                      0                       # What read queue length does an incoming req see
system.mem_ctrls.rdQLenPdf::19                      0                       # What read queue length does an incoming req see
system.mem_ctrls.rdQLenPdf::20                      0                       # What read queue length does an incoming req see
system.mem_ctrls.rdQLenPdf::21                      0                       # What read queue length does an incoming req see
system.mem_ctrls.rdQLenPdf::22                      0                       # What read queue length does an incoming req see
system.mem_ctrls.rdQLenPdf::23                      0                       # What read queue length does an incoming req see
system.mem_ctrls.rdQLenPdf::24                      0                       # What read queue length does an incoming req see
system.mem_ctrls.rdQLenPdf::25                      0                       # What read queue length does an incoming req see
system.mem_ctrls.rdQLenPdf::26                      0                       # What read queue length does an incoming req see
system.mem_ctrls.rdQLenPdf::27                      0                       # What read queue length does an incoming req see
system.mem_ctrls.rdQLenPdf::28                      0                       # What read queue length does an incoming req see
system.mem_ctrls.rdQLenPdf::29                      0                       # What read queue length does an incoming req see
system.mem_ctrls.rdQLenPdf::30                      0                       # What read queue length does an incoming req see
system.mem_ctrls.rdQLenPdf::31                      0                       # What read queue length does an incoming req see
system.mem_ctrls.wrQLenPdf::0                       1                       # What write queue length does an incoming req see
system.mem_ctrls.wrQLenPdf::1                       0                       # What write queue length does an incoming req see
system.mem_ctrls.wrQLenPdf::2                       0                       # What write queue length does an incoming req see
system.mem_ctrls.wrQLenPdf::3                       0                       # What write queue length does an incoming req see
system.mem_ctrls.wrQLenPdf::4                       0                       # What write queue length does an incoming req see
system.mem_ctrls.wrQLenPdf::5                       0                       # What write queue length does an incoming req see
system.mem_ctrls.wrQLenPdf::6                       0                       # What write queue length does an incoming req see
system.mem_ctrls.wrQLenPdf::7                       0                       # What write queue length does an incoming req see
system.mem_ctrls.wrQLenPdf::8                       0                       # What write queue length does an incoming req see
system.mem_ctrls.wrQLenPdf::9                       0                       # What write queue length does an incoming req see
system.mem_ctrls.wrQLenPdf::10                      0                       # What write queue length does an incoming req see
system.mem_ctrls.wrQLenPdf::11                      0                       # What write queue length does an incoming req see
system.mem_ctrls.wrQLenPdf::12                      0                       # What write queue length does an incoming req see
system.mem_ctrls.wrQLenPdf::13                      0                       # What write queue length does an incoming req see
system.mem_ctrls.wrQLenPdf::14                      0                       # What write queue length does an incoming req see
system.mem_ctrls.wrQLenPdf::15                      0                       # What write queue length does an incoming req see
system.mem_ctrls.wrQLenPdf::16                      0                       # What write queue length does an incoming req see
system.mem_ctrls.wrQLenPdf::17                      0                       # What write queue length does an incoming req see
system.mem_ctrls.wrQLenPdf::18                      0                       # What write queue length does an incoming req see
system.mem_ctrls.wrQLenPdf::19                      0                       # What write queue length does an incoming req see
system.mem_ctrls.wrQLenPdf::20                      0                       # What write queue length does an incoming req see
system.mem_ctrls.wrQLenPdf::21                      0                       # What write queue length does an incoming req see
system.mem_ctrls.wrQLenPdf::22                      0                       # What write queue length does an incoming req see
system.mem_ctrls.wrQLenPdf::23                      0                       # What write queue length does an incoming req see
system.mem_ctrls.wrQLenPdf::24                      0                       # What write queue length does an incoming req see
system.mem_ctrls.wrQLenPdf::25                      0                       # What write queue length does an incoming req see
system.mem_ctrls.wrQLenPdf::26                      0                       # What write queue length does an incoming req see
system.mem_ctrls.wrQLenPdf::27                      0                       # What write queue length does an incoming req see
system.mem_ctrls.wrQLenPdf::28                      0                       # What write queue length does an incoming req see
system.mem_ctrls.wrQLenPdf::29                      0                       # What write queue length does an incoming req see
system.mem_ctrls.wrQLenPdf::30                      0                       # What write queue length does an incoming req see
system.mem_ctrls.wrQLenPdf::31                      0                       # What write queue length does an incoming req see
system.mem_ctrls.wrQLenPdf::32                      0                       # What write queue length does an incoming req see
system.mem_ctrls.wrQLenPdf::33                      0                       # What write queue length does an incoming req see
system.mem_ctrls.wrQLenPdf::34                      0                       # What write queue length does an incoming req see
system.mem_ctrls.wrQLenPdf::35                      0                       # What write queue length does an incoming req see
system.mem_ctrls.wrQLenPdf::36                      0                       # What write queue length does an incoming req see
system.mem_ctrls.wrQLenPdf::37                      0                       # What write queue length does an incoming req see
system.mem_ctrls.wrQLenPdf::38                      0                       # What write queue length does an incoming req see
system.mem_ctrls.wrQLenPdf::39                      0                       # What write queue length does an incoming req see
system.mem_ctrls.wrQLenPdf::40                      0                       # What write queue length does an incoming req see
system.mem_ctrls.wrQLenPdf::41                      0                       # What write queue length does an incoming req see
system.mem_ctrls.wrQLenPdf::42                      0                       # What write queue length does an incoming req see
system.mem_ctrls.wrQLenPdf::43                      0                       # What write queue length does an incoming req see
system.mem_ctrls.wrQLenPdf::44                      0                       # What write queue length does an incoming req see
system.mem_ctrls.wrQLenPdf::45                      0                       # What write queue length does an incoming req see
system.mem_ctrls.wrQLenPdf::46                      0                       # What write queue length does an incoming req see
system.mem_ctrls.wrQLenPdf::47                      0                       # What write queue length does an incoming req see
system.mem_ctrls.wrQLenPdf::48                      0                       # What write queue length does an incoming req see
system.mem_ctrls.wrQLenPdf::49                      0                       # What write queue length does an incoming req see
system.mem_ctrls.wrQLenPdf::50                      0                       # What write queue length does an incoming req see
system.mem_ctrls.wrQLenPdf::51                      0                       # What write queue length does an incoming req see
system.mem_ctrls.wrQLenPdf::52                      0                       # What write queue length does an incoming req see
system.mem_ctrls.wrQLenPdf::53                      0                       # What write queue length does an incoming req see
system.mem_ctrls.wrQLenPdf::54                      0                       # What write queue length does an incoming req see
system.mem_ctrls.wrQLenPdf::55                      0                       # What write queue length does an incoming req see
system.mem_ctrls.wrQLenPdf::56                      0                       # What write queue length does an incoming req see
system.mem_ctrls.wrQLenPdf::57                      0                       # What write queue length does an incoming req see
system.mem_ctrls.wrQLenPdf::58                      0                       # What write queue length does an incoming req see
system.mem_ctrls.wrQLenPdf::59                      0                       # What write queue length does an incoming req see
system.mem_ctrls.wrQLenPdf::60                      0                       # What write queue length does an incoming req see
system.mem_ctrls.wrQLenPdf::61                      0                       # What write queue length does an incoming req see
system.mem_ctrls.wrQLenPdf::62                      0                       # What write queue length does an incoming req see
system.mem_ctrls.wrQLenPdf::63                      0                       # What write queue length does an incoming req see
system.mem_ctrls.bytesPerActivate::samples          484                       # Bytes accessed per row activation
system.mem_ctrls.bytesPerActivate::mean    245.553719                       # Bytes accessed per row activation
system.mem_ctrls.bytesPerActivate::gmean   139.185924                       # Bytes accessed per row activation
system.mem_ctrls.bytesPerActivate::stdev   306.007698                       # Bytes accessed per row activation
system.mem_ctrls.bytesPerActivate::0-127          254     52.48%     52.48% # Bytes accessed per row activation
system.mem_ctrls.bytesPerActivate::128-255           95     19.63%     72.11% # Bytes accessed per row activation
system.mem_ctrls.bytesPerActivate::256-383           37      7.64%     79.75% # Bytes accessed per row activation
system.mem_ctrls.bytesPerActivate::384-511           23      4.75%     84.50% # Bytes accessed per row activation
system.mem_ctrls.bytesPerActivate::512-639           11      2.27%     86.78% # Bytes accessed per row activation
system.mem_ctrls.bytesPerActivate::640-767            4      0.83%     87.60% # Bytes accessed per row activation
system.mem_ctrls.bytesPerActivate::768-895            6      1.24%     88.84% # Bytes accessed per row activation
system.mem_ctrls.bytesPerActivate::896-1023            9      1.86%     90.70% # Bytes accessed per row activation
system.mem_ctrls.bytesPerActivate::1024-1151           45      9.30%    100.00% # Bytes accessed per row activation
system.mem_ctrls.bytesPerActivate::total          484                       # Bytes accessed per row activation
system.mem_ctrls.masterReadBytes::.writebacks           32                       # Per-master bytes read from memory
system.mem_ctrls.masterReadBytes::.cpu.inst        52224                       # Per-master bytes read from memory
system.mem_ctrls.masterReadBytes::.cpu.data        68480                       # Per-master bytes read from memory
system.mem_ctrls.masterReadRate::.writebacks 472.227263207265                       # Per-master bytes read from memory rate (Bytes/sec)
system.mem_ctrls.masterReadRate::.cpu.inst 770674.893554256530                       # Per-master bytes read from memory rate (Bytes/sec)
system.mem_ctrls.masterReadRate::.cpu.data 1010566.343263547169                       # Per-master bytes read from memory rate (Bytes/sec)
system.mem_ctrls.masterReadAccesses::.writebacks            4                       # Per-master read serviced memory accesses
system.mem_ctrls.masterReadAccesses::.cpu.inst          816                       # Per-master read serviced memory accesses
system.mem_ctrls.masterReadAccesses::.cpu.data         1070                       # Per-master read serviced memory accesses
system.mem_ctrls.masterWriteAccesses::.writebacks            2                       # Per-master write serviced memory accesses
system.mem_ctrls.masterReadTotalLat::.writebacks       161000                       # Per-master read total memory access latency
system.mem_ctrls.masterReadTotalLat::.cpu.inst     27483250                       # Per-master read total memory access latency
system.mem_ctrls.masterReadTotalLat::.cpu.data    110548000                       # Per-master read total memory access latency
system.mem_ctrls.masterReadAvgLat::.writebacks     40250.00                       # Per-master read average memory access latency
system.mem_ctrls.masterReadAvgLat::.cpu.inst     33680.45                       # Per-master read average memory access latency
system.mem_ctrls.masterReadAvgLat::.cpu.data    103315.89                       # Per-master read average memory access latency
system.mem_ctrls.masterWriteAvgLat::.writebacks         0.00                       # Per-master write average memory access latency
system.mem_ctrls.totQLat                    102754750                       # Total ticks spent queuing
system.mem_ctrls.totMemAccLat               138192250                       # Total ticks spent from burst creation until serviced by the DRAM
system.mem_ctrls.totBusLat                    9450000                       # Total ticks spent in databus transfers
system.mem_ctrls.avgQLat                     54367.59                       # Average queueing delay per DRAM burst
system.mem_ctrls.avgBusLat                    5000.00                       # Average bus latency per DRAM burst
system.mem_ctrls.avgMemAccLat                73117.59                       # Average memory access latency per DRAM burst
system.mem_ctrls.avgRdBW                         1.79                       # Average DRAM read bandwidth in MiByte/s
system.mem_ctrls.avgWrBW                         0.00                       # Average achieved write bandwidth in MiByte/s
system.mem_ctrls.avgRdBWSys                      1.78                       # Average system read bandwidth in MiByte/s
system.mem_ctrls.avgWrBWSys                      0.00                       # Average system write bandwidth in MiByte/s
system.mem_ctrls.peakBW                      12800.00                       # Theoretical peak bandwidth in MiByte/s
system.mem_ctrls.busUtil                         0.01                       # Data bus utilization in percentage
system.mem_ctrls.busUtilRead                     0.01                       # Data bus utilization in percentage for reads
system.mem_ctrls.busUtilWrite                    0.00                       # Data bus utilization in percentage for writes
system.mem_ctrls.avgRdQLen                       1.42                       # Average read queue length when enqueuing
system.mem_ctrls.avgWrQLen                       0.43                       # Average write queue length when enqueuing
system.mem_ctrls.readRowHits                     1399                       # Number of row buffer hits during reads
system.mem_ctrls.writeRowHits                       0                       # Number of row buffer hits during writes
system.mem_ctrls.readRowHitRate                 74.02                       # Row buffer hit rate for reads
system.mem_ctrls.writeRowHitRate                 0.00                       # Row buffer hit rate for writes
system.mem_ctrls.avgGap                   35816016.12                       # Average gap between requests
system.mem_ctrls.pageHitRate                    73.98                       # Row buffer hit rate, read and write combined
system.mem_ctrls_0.actEnergy                        0                       # Energy for activate commands per rank (pJ)
system.mem_ctrls_0.preEnergy                        0                       # Energy for precharge commands per rank (pJ)
system.mem_ctrls_0.readEnergy                13494600                       # Energy for read commands per rank (pJ)
system.mem_ctrls_0.writeEnergy                      0                       # Energy for write commands per rank (pJ)
system.mem_ctrls_0.refreshEnergy                    0                       # Energy for refresh commands per rank (pJ)
system.mem_ctrls_0.actBackEnergy                    0                       # Energy for active background per rank (pJ)
system.mem_ctrls_0.preBackEnergy                    0                       # Energy for precharge background per rank (pJ)
system.mem_ctrls_0.actPowerDownEnergy               0                       # Energy for active power-down per rank (pJ)
system.mem_ctrls_0.prePowerDownEnergy               0                       # Energy for precharge power-down per rank (pJ)
system.mem_ctrls_0.selfRefreshEnergy                0                       # Energy for self refresh per rank (pJ)
system.mem_ctrls_0.totalEnergy            17035250580                       # Total energy per rank (pJ)
system.mem_ctrls_0.averagePower            251.390930                       # Core power per rank (mW)
system.mem_ctrls_0.totalIdleTime          67577936000                       # Total Idle time Per DRAM Rank
system.mem_ctrls_0.memoryStateTime::IDLE     41735500                       # Time in different power states
system.mem_ctrls_0.memoryStateTime::REF      84500000                       # Time in different power states
system.mem_ctrls_0.memoryStateTime::SREF  65186585250                       # Time in different power states
system.mem_ctrls_0.memoryStateTime::PRE_PDN   1125975750                       # Time in different power states
system.mem_ctrls_0.memoryStateTime::ACT      59767250                       # Time in different power states
system.mem_ctrls_0.memoryStateTime::ACT_PDN   1265418750                       # Time in different power states
system.pim_kernerls.clk_domain.voltage_domain.voltage            1                       # Voltage in Volts
system.pim_kernerls.clk_domain.clock             1000                       # Clock period in ticks
system.pim_kernerls.pwrStateResidencyTicks::UNDEFINED  67763982500                       # Cumulative time (in ticks) in various power states
system.pim_kernerls.recv_pim_commands               2                       # The PIM command received from the host-side processor
system.pim_kernerls.sent_pim_commands               2                       # the control commands sent by pim kernel
system.pim_kernerls.computing_counts                2                       # the counts of the computing progress
system.pim_kernerls.read_packets                    2                       # the amount of pim kernel read
system.pim_kernerls.write_packets                   2                       # the amount of pim kernel write
system.pim_kernerls.read_retry                      4                       # the amount of pim kernel read retry
system.pim_kernerls.write_retry                     0                       # the amount of pim kernel write retry
system.pim_kernerls.retry_failed                    0                       # the amount of failed pim kernel requests
system.pim_kernerls.active_cycle             57000194                       # the active cycles of the kernel
system.pim_kernerls.retry_cycle                     2                       # the retry cycles of the kernel
system.pim_kernerls.totalEnergy          248400.000000                       # total energy consumed by MAGIC operations (pJ)
system.pim_kernerls.totalComputeCycles       57000000                       # total cycles spent computing MAGIC operations
system.pwrStateResidencyTicks::UNDEFINED  67763982500                       # Cumulative time (in ticks) in various power states
system.cpu_voltage_domain.voltage                   1                       # Voltage in Volts
system.cpu_clk_domain.clock                       500                       # Clock period in ticks
system.cpu.dtb.walker.pwrStateResidencyTicks::UNDEFINED  67763982500                       # Cumulative time (in ticks) in various power states
system.cpu.dtb.rdAccesses                     1408645                       # TLB accesses on read requests
system.cpu.dtb.wrAccesses                      863716                       # TLB accesses on write requests
system.cpu.dtb.rdMisses                            21                       # TLB misses on read requests
system.cpu.dtb.wrMisses                            19                       # TLB misses on write requests
system.cpu.apic_clk_domain.clock                 8000                       # Clock period in ticks
system.cpu.interrupts.pwrStateResidencyTicks::UNDEFINED  67763982500                       # Cumulative time (in ticks) in various power states
system.cpu.itb.walker.pwrStateResidencyTicks::UNDEFINED  67763982500                       # Cumulative time (in ticks) in various power states
system.cpu.itb.rdAccesses                           0                       # TLB accesses on read requests
system.cpu.itb.wrAccesses                     8241561                       # TLB accesses on write requests
system.cpu.itb.rdMisses                             0                       # TLB misses on read requests
system.cpu.itb.wrMisses                            64                       # TLB misses on write requests
system.cpu.workload.numSyscalls                    34                       # Number of system calls
system.cpu.pwrStateResidencyTicks::ON     67763982500                       # Cumulative time (in ticks) in various power states
system.cpu.numCycles                        135527965                       # number of cpu cycles simulated
system.cpu.numWorkItemsStarted                      0                       # number of work items this cpu started
system.cpu.numWorkItemsCompleted                    0                       # number of work items this cpu completed
system.cpu.committedInsts                     5972249                       # Number of instructions committed
system.cpu.committedOps                      11244888                       # Number of ops (including micro ops) committed
system.cpu.num_int_alu_accesses              11159357                       # Number of integer alu accesses
system.cpu.num_fp_alu_accesses                 170810                       # Number of float alu accesses
system.cpu.num_vec_alu_accesses                     0                       # Number of vector alu accesses
system.cpu.num_func_calls                       95784                       # number of times a function call or return occured
system.cpu.num_conditional_control_insts      1134392                       # number of instructions that are conditional controls
system.cpu.num_int_insts                     11159357                       # number of integer instructions
system.cpu.num_fp_insts                        170810                       # number of float instructions
system.cpu.num_vec_insts                            0                       # number of vector instructions
system.cpu.num_int_register_reads            21382223                       # number of times the integer registers were read
system.cpu.num_int_register_writes            8875411                       # number of times the integer registers were written
system.cpu.num_fp_register_reads               146437                       # number of times the floating registers were read
system.cpu.num_fp_register_writes              121874                       # number of times the floating registers were written
system.cpu.num_vec_register_reads                   0                       # number of times the vector registers were read
system.cpu.num_vec_register_writes                  0                       # number of times the vector registers were written
system.cpu.num_cc_register_reads              6760720                       # number of times the CC registers were read
system.cpu.num_cc_register_writes             3488264                       # number of times the CC registers were written
system.cpu.num_mem_refs                       2272036                       # number of memory refs
system.cpu.num_load_insts                     1408334                       # Number of load instructions
system.cpu.num_store_insts                     863702                       # Number of store instructions
system.cpu.num_idle_cycles               113997119.998318                       # Number of idle cycles
system.cpu.num_busy_cycles               21530845.001682                       # Number of busy cycles
system.cpu.not_idle_fraction                 0.158866                       # Percentage of non-idle cycles
system.cpu.idle_fraction                     0.841134                       # Percentage of idle cycles
system.cpu.Branches                           1392702                       # Number of branches fetched
system.cpu.op_class::No_OpClass                 11549      0.10%      0.10% # Class of executed instruction
system.cpu.op_class::IntAlu                   8872753     78.90%     79.01% # Class of executed instruction
system.cpu.op_class::IntMult                    19488      0.17%     79.18% # Class of executed instruction
system.cpu.op_class::IntDiv                        91      0.00%     79.18% # Class of executed instruction
system.cpu.op_class::FloatAdd                   31944      0.28%     79.47% # Class of executed instruction
system.cpu.op_class::FloatCmp                       0      0.00%     79.47% # Class of executed instruction
system.cpu.op_class::FloatCvt                       0      0.00%     79.47% # Class of executed instruction
system.cpu.op_class::FloatMult                      0      0.00%     79.47% # Class of executed instruction
system.cpu.op_class::FloatMultAcc                   0      0.00%     79.47% # Class of executed instruction
system.cpu.op_class::FloatDiv                       0      0.00%     79.47% # Class of executed instruction
system.cpu.op_class::FloatMisc                      0      0.00%     79.47% # Class of executed instruction
system.cpu.op_class::FloatSqrt                      0      0.00%     79.47% # Class of executed instruction
system.cpu.op_class::SimdAdd                      374      0.00%     79.47% # Class of executed instruction
system.cpu.op_class::SimdAddAcc                     0      0.00%     79.47% # Class of executed instruction
system.cpu.op_class::SimdAlu                    13458      0.12%     79.59% # Class of executed instruction
system.cpu.op_class::SimdCmp                        0      0.00%     79.59% # Class of executed instruction
system.cpu.op_class::SimdCvt                     1674      0.01%     79.60% # Class of executed instruction
system.cpu.op_class::SimdMisc                    9063      0.08%     79.68% # Class of executed instruction
system.cpu.op_class::SimdMult                       0      0.00%     79.68% # Class of executed instruction
system.cpu.op_class::SimdMultAcc                    0      0.00%     79.68% # Class of executed instruction
system.cpu.op_class::SimdShift                    186      0.00%     79.69% # Class of executed instruction
system.cpu.op_class::SimdShiftAcc                   0      0.00%     79.69% # Class of executed instruction
system.cpu.op_class::SimdSqrt                       0      0.00%     79.69% # Class of executed instruction
system.cpu.op_class::SimdFloatAdd                 800      0.01%     79.69% # Class of executed instruction
system.cpu.op_class::SimdFloatAlu                   0      0.00%     79.69% # Class of executed instruction
system.cpu.op_class::SimdFloatCmp                   0      0.00%     79.69% # Class of executed instruction
system.cpu.op_class::SimdFloatCvt                6139      0.05%     79.75% # Class of executed instruction
system.cpu.op_class::SimdFloatDiv                5133      0.05%     79.79% # Class of executed instruction
system.cpu.op_class::SimdFloatMisc                  0      0.00%     79.79% # Class of executed instruction
system.cpu.op_class::SimdFloatMult                200      0.00%     79.79% # Class of executed instruction
system.cpu.op_class::SimdFloatMultAcc               0      0.00%     79.79% # Class of executed instruction
system.cpu.op_class::SimdFloatSqrt                  0      0.00%     79.79% # Class of executed instruction
system.cpu.op_class::SimdAes                        0      0.00%     79.79% # Class of executed instruction
system.cpu.op_class::SimdAesMix                     0      0.00%     79.79% # Class of executed instruction
system.cpu.op_class::SimdSha1Hash                   0      0.00%     79.79% # Class of executed instruction
system.cpu.op_class::SimdSha1Hash2                  0      0.00%     79.79% # Class of executed instruction
system.cpu.op_class::SimdSha256Hash                 0      0.00%     79.79% # Class of executed instruction
system.cpu.op_class::SimdSha256Hash2                0      0.00%     79.79% # Class of executed instruction
system.cpu.op_class::SimdShaSigma2                  0      0.00%     79.79% # Class of executed instruction
system.cpu.op_class::SimdShaSigma3                  0      0.00%     79.79% # Class of executed instruction
system.cpu.op_class::MemRead                  1365695     12.15%     91.94% # Class of executed instruction
system.cpu.op_class::MemWrite                  816445      7.26%     99.20% # Class of executed instruction
system.cpu.op_class::FloatMemRead               42639      0.38%     99.58% # Class of executed instruction
system.cpu.op_class::FloatMemWrite              47257      0.42%    100.00% # Class of executed instruction
system.cpu.op_class::IprAccess                      0      0.00%    100.00% # Class of executed instruction
system.cpu.op_class::InstPrefetch                   0      0.00%    100.00% # Class of executed instruction
system.cpu.op_class::total                   11244888                       # Class of executed instruction
system.cpu.dcache.tags.pwrStateResidencyTicks::UNDEFINED  67763982500                       # Cumulative time (in ticks) in various power states
system.cpu.dcache.tags.tagsinuse           510.582872                       # Cycle average of tags in use
system.cpu.dcache.tags.total_refs             2272353                       # Total number of references to valid blocks.
system.cpu.dcache.tags.sampled_refs              1852                       # Sample count of references to valid blocks.
system.cpu.dcache.tags.avg_refs           1226.972462                       # Average number of references to valid blocks.
system.cpu.dcache.tags.warmup_cycle            181500                       # Cycle when the warmup percentage was hit.
system.cpu.dcache.tags.occ_blocks::.cpu.data   510.582872                       # Average occupied blocks per requestor
system.cpu.dcache.tags.occ_percent::.cpu.data     0.997232                       # Average percentage of cache occupancy
system.cpu.dcache.tags.occ_percent::total     0.997232                       # Average percentage of cache occupancy
system.cpu.dcache.tags.occ_task_id_blocks::1024          512                       # Occupied blocks per task id
system.cpu.dcache.tags.age_task_id_blocks_1024::0           19                       # Occupied blocks per task id
system.cpu.dcache.tags.age_task_id_blocks_1024::1            3                       # Occupied blocks per task id
system.cpu.dcache.tags.age_task_id_blocks_1024::2           37                       # Occupied blocks per task id
system.cpu.dcache.tags.age_task_id_blocks_1024::4          453                       # Occupied blocks per task id
system.cpu.dcache.tags.occ_task_id_percent::1024            1                       # Percentage of cache occupancy per task id
system.cpu.dcache.tags.tag_accesses           9091264                       # Number of tag accesses
system.cpu.dcache.tags.data_accesses          9091264                       # Number of data accesses
system.cpu.dcache.pwrStateResidencyTicks::UNDEFINED  67763982500                       # Cumulative time (in ticks) in various power states
system.cpu.dcache.ReadReq_hits::.cpu.data      1408093                       # number of ReadReq hits
system.cpu.dcache.ReadReq_hits::total         1408093                       # number of ReadReq hits
system.cpu.dcache.WriteReq_hits::.cpu.data       862408                       # number of WriteReq hits
system.cpu.dcache.WriteReq_hits::total         862408                       # number of WriteReq hits
system.cpu.dcache.demand_hits::.cpu.data      2270501                       # number of demand (read+write) hits
system.cpu.dcache.demand_hits::total          2270501                       # number of demand (read+write) hits
system.cpu.dcache.overall_hits::.cpu.data      2270501                       # number of overall hits
system.cpu.dcache.overall_hits::total         2270501                       # number of overall hits
system.cpu.dcache.ReadReq_misses::.cpu.data          552                       # number of ReadReq misses
system.cpu.dcache.ReadReq_misses::total           552                       # number of ReadReq misses
system.cpu.dcache.WriteReq_misses::.cpu.data         1300                       # number of WriteReq misses
system.cpu.dcache.WriteReq_misses::total         1300                       # number of WriteReq misses
system.cpu.dcache.demand_misses::.cpu.data         1852                       # number of demand (read+write) misses
system.cpu.dcache.demand_misses::total           1852                       # number of demand (read+write) misses
system.cpu.dcache.overall_misses::.cpu.data         1852                       # number of overall misses
system.cpu.dcache.overall_misses::total          1852                       # number of overall misses
system.cpu.dcache.ReadReq_miss_latency::.cpu.data     94909500                       # number of ReadReq miss cycles
system.cpu.dcache.ReadReq_miss_latency::total     94909500                       # number of ReadReq miss cycles
system.cpu.dcache.WriteReq_miss_latency::.cpu.data     82845000                       # number of WriteReq miss cycles
system.cpu.dcache.WriteReq_miss_latency::total     82845000                       # number of WriteReq miss cycles
system.cpu.dcache.demand_miss_latency::.cpu.data    177754500                       # number of demand (read+write) miss cycles
system.cpu.dcache.demand_miss_latency::total    177754500                       # number of demand (read+write) miss cycles
system.cpu.dcache.overall_miss_latency::.cpu.data    177754500                       # number of overall miss cycles
system.cpu.dcache.overall_miss_latency::total    177754500                       # number of overall miss cycles
system.cpu.dcache.ReadReq_accesses::.cpu.data      1408645                       # number of ReadReq accesses(hits+misses)
system.cpu.dcache.ReadReq_accesses::total      1408645                       # number of ReadReq accesses(hits+misses)
system.cpu.dcache.WriteReq_accesses::.cpu.data       863708                       # number of WriteReq accesses(hits+misses)
system.cpu.dcache.WriteReq_accesses::total       863708                       # number of WriteReq accesses(hits+misses)
system.cpu.dcache.demand_accesses::.cpu.data      2272353                       # number of demand (read+write) accesses
system.cpu.dcache.demand_accesses::total      2272353                       # number of demand (read+write) accesses
system.cpu.dcache.overall_accesses::.cpu.data      2272353                       # number of overall (read+write) accesses
system.cpu.dcache.overall_accesses::total      2272353                       # number of overall (read+write) accesses
system.cpu.dcache.ReadReq_miss_rate::.cpu.data     0.000392                       # miss rate for ReadReq accesses
system.cpu.dcache.ReadReq_miss_rate::total     0.000392                       # miss rate for ReadReq accesses
system.cpu.dcache.WriteReq_miss_rate::.cpu.data     0.001505                       # miss rate for WriteReq accesses
system.cpu.dcache.WriteReq_miss_rate::total     0.001505                       # miss rate for WriteReq accesses
system.cpu.dcache.demand_miss_rate::.cpu.data     0.000815                       # miss rate for demand accesses
system.cpu.dcache.demand_miss_rate::total     0.000815                       # miss rate for demand accesses
system.cpu.dcache.overall_miss_rate::.cpu.data     0.000815                       # miss rate for overall accesses
system.cpu.dcache.overall_miss_rate::total     0.000815                       # miss rate for overall accesses
system.cpu.dcache.ReadReq_avg_miss_latency::.cpu.data 171937.500000                       # average ReadReq miss latency
system.cpu.dcache.ReadReq_avg_miss_latency::total 171937.500000                       # average ReadReq miss latency
system.cpu.dcache.WriteReq_avg_miss_latency::.cpu.data 63726.923077                       # average WriteReq miss latency
system.cpu.dcache.WriteReq_avg_miss_latency::total 63726.923077                       # average WriteReq miss latency
system.cpu.dcache.demand_avg_miss_latency::.cpu.data 95979.751620                       # average overall miss latency
system.cpu.dcache.demand_avg_miss_latency::total 95979.751620                       # average overall miss latency
system.cpu.dcache.overall_avg_miss_latency::.cpu.data 95979.751620                       # average overall miss latency
system.cpu.dcache.overall_avg_miss_latency::total 95979.751620                       # average overall miss latency
system.cpu.dcache.blocked_cycles::no_mshrs            0                       # number of cycles access was blocked
system.cpu.dcache.blocked_cycles::no_targets            0                       # number of cycles access was blocked
system.cpu.dcache.blocked::no_mshrs                 0                       # number of cycles access was blocked
system.cpu.dcache.blocked::no_targets               0                       # number of cycles access was blocked
system.cpu.dcache.avg_blocked_cycles::no_mshrs          nan                       # average number of cycles each access was blocked
system.cpu.dcache.avg_blocked_cycles::no_targets          nan                       # average number of cycles each access was blocked
system.cpu.dcache.writebacks::.writebacks         1148                       # number of writebacks
system.cpu.dcache.writebacks::total              1148                       # number of writebacks
system.cpu.dcache.ReadReq_mshr_misses::.cpu.data          552                       # number of ReadReq MSHR misses
system.cpu.dcache.ReadReq_mshr_misses::total          552                       # number of ReadReq MSHR misses
system.cpu.dcache.WriteReq_mshr_misses::.cpu.data         1300                       # number of WriteReq MSHR misses
system.cpu.dcache.WriteReq_mshr_misses::total         1300                       # number of WriteReq MSHR misses
system.cpu.dcache.demand_mshr_misses::.cpu.data         1852                       # number of demand (read+write) MSHR misses
system.cpu.dcache.demand_mshr_misses::total         1852                       # number of demand (read+write) MSHR misses
system.cpu.dcache.overall_mshr_misses::.cpu.data         1852                       # number of overall MSHR misses
system.cpu.dcache.overall_mshr_misses::total         1852                       # number of overall MSHR misses
system.cpu.dcache.ReadReq_mshr_miss_latency::.cpu.data     94357500                       # number of ReadReq MSHR miss cycles
system.cpu.dcache.ReadReq_mshr_miss_latency::total     94357500                       # number of ReadReq MSHR miss cycles
system.cpu.dcache.WriteReq_mshr_miss_latency::.cpu.data     81545000                       # number of WriteReq MSHR miss cycles
system.cpu.dcache.WriteReq_mshr_miss_latency::total     81545000                       # number of WriteReq MSHR miss cycles
system.cpu.dcache.demand_mshr_miss_latency::.cpu.data    175902500                       # number of demand (read+write) MSHR miss cycles
system.cpu.dcache.demand_mshr_miss_latency::total    175902500                       # number of demand (read+write) MSHR miss cycles
system.cpu.dcache.overall_mshr_miss_latency::.cpu.data    175902500                       # number of overall MSHR miss cycles
system.cpu.dcache.overall_mshr_miss_latency::total    175902500                       # number of overall MSHR miss cycles
system.cpu.dcache.ReadReq_mshr_miss_rate::.cpu.data     0.000392                       # mshr miss rate for ReadReq accesses
system.cpu.dcache.ReadReq_mshr_miss_rate::total     0.000392                       # mshr miss rate for ReadReq accesses
system.cpu.dcache.WriteReq_mshr_miss_rate::.cpu.data     0.001505                       # mshr miss rate for WriteReq accesses
system.cpu.dcache.WriteReq_mshr_miss_rate::total     0.001505                       # mshr miss rate for WriteReq accesses
system.cpu.dcache.demand_mshr_miss_rate::.cpu.data     0.000815                       # mshr miss rate for demand accesses
system.cpu.dcache.demand_mshr_miss_rate::total     0.000815                       # mshr miss rate for demand accesses
system.cpu.dcache.overall_mshr_miss_rate::.cpu.data     0.000815                       # mshr miss rate for overall accesses
system.cpu.dcache.overall_mshr_miss_rate::total     0.000815                       # mshr miss rate for overall accesses
system.cpu.dcache.ReadReq_avg_mshr_miss_latency::.cpu.data 170937.500000                       # average ReadReq mshr miss latency
system.cpu.dcache.ReadReq_avg_mshr_miss_latency::total 170937.500000                       # average ReadReq mshr miss latency
system.cpu.dcache.WriteReq_avg_mshr_miss_latency::.cpu.data 62726.923077                       # average WriteReq mshr miss latency
system.cpu.dcache.WriteReq_avg_mshr_miss_latency::total 62726.923077                       # average WriteReq mshr miss latency
system.cpu.dcache.demand_avg_mshr_miss_latency::.cpu.data 94979.751620                       # average overall mshr miss latency
system.cpu.dcache.demand_avg_mshr_miss_latency::total 94979.751620                       # average overall mshr miss latency
system.cpu.dcache.overall_avg_mshr_miss_latency::.cpu.data 94979.751620                       # average overall mshr miss latency
system.cpu.dcache.overall_avg_mshr_miss_latency::total 94979.751620                       # average overall mshr miss latency
system.cpu.dcache.replacements                   1336                       # number of replacements
system.cpu.dtb_walker_cache.tags.pwrStateResidencyTicks::UNDEFINED  67763982500                       # Cumulative time (in ticks) in various power states
system.cpu.dtb_walker_cache.tags.tagsinuse            0                       # Cycle average of tags in use
system.cpu.dtb_walker_cache.tags.total_refs            0                       # Total number of references to valid blocks.
system.cpu.dtb_walker_cache.tags.sampled_refs            0                       # Sample count of references to valid blocks.
system.cpu.dtb_walker_cache.tags.avg_refs          nan                       # Average number of references to valid blocks.
system.cpu.dtb_walker_cache.tags.warmup_cycle            0                       # Cycle when the warmup percentage was hit.
system.cpu.dtb_walker_cache.tags.tag_accesses            0                       # Number of tag accesses
system.cpu.dtb_walker_cache.tags.data_accesses            0                       # Number of data accesses
system.cpu.dtb_walker_cache.pwrStateResidencyTicks::UNDEFINED  67763982500                       # Cumulative time (in ticks) in various power states
system.cpu.dtb_walker_cache.blocked_cycles::no_mshrs            0                       # number of cycles access was blocked
system.cpu.dtb_walker_cache.blocked_cycles::no_targets            0                       # number of cycles access was blocked
system.cpu.dtb_walker_cache.blocked::no_mshrs            0                       # number of cycles access was blocked
system.cpu.dtb_walker_cache.blocked::no_targets            0                       # number of cycles access was blocked
system.cpu.dtb_walker_cache.avg_blocked_cycles::no_mshrs          nan                       # average number of cycles each access was blocked
system.cpu.dtb_walker_cache.avg_blocked_cycles::no_targets          nan                       # average number of cycles each access was blocked
system.cpu.dtb_walker_cache.replacements            0                       # number of replacements
system.cpu.icache.tags.pwrStateResidencyTicks::UNDEFINED  67763982500                       # Cumulative time (in ticks) in various power states
system.cpu.icache.tags.tagsinuse           476.140851                       # Cycle average of tags in use
system.cpu.icache.tags.total_refs             8241561                       # Total number of references to valid blocks.
system.cpu.icache.tags.sampled_refs              1279                       # Sample count of references to valid blocks.
system.cpu.icache.tags.avg_refs           6443.753714                       # Average number of references to valid blocks.
system.cpu.icache.tags.warmup_cycle             87500                       # Cycle when the warmup percentage was hit.
system.cpu.icache.tags.occ_blocks::.cpu.inst   476.140851                       # Average occupied blocks per requestor
system.cpu.icache.tags.occ_percent::.cpu.inst     0.929963                       # Average percentage of cache occupancy
system.cpu.icache.tags.occ_percent::total     0.929963                       # Average percentage of cache occupancy
system.cpu.icache.tags.occ_task_id_blocks::1024          499                       # Occupied blocks per task id
system.cpu.icache.tags.age_task_id_blocks_1024::0           61                       # Occupied blocks per task id
system.cpu.icache.tags.age_task_id_blocks_1024::1            1                       # Occupied blocks per task id
system.cpu.icache.tags.age_task_id_blocks_1024::2          107                       # Occupied blocks per task id
system.cpu.icache.tags.age_task_id_blocks_1024::4          330                       # Occupied blocks per task id
system.cpu.icache.tags.occ_task_id_percent::1024     0.974609                       # Percentage of cache occupancy per task id
system.cpu.icache.tags.tag_accesses          32967523                       # Number of tag accesses
system.cpu.icache.tags.data_accesses         32967523                       # Number of data accesses
system.cpu.icache.pwrStateResidencyTicks::UNDEFINED  67763982500                       # Cumulative time (in ticks) in various power states
system.cpu.icache.ReadReq_hits::.cpu.inst      8240282                       # number of ReadReq hits
system.cpu.icache.ReadReq_hits::total         8240282                       # number of ReadReq hits
system.cpu.icache.demand_hits::.cpu.inst      8240282                       # number of demand (read+write) hits
system.cpu.icache.demand_hits::total          8240282                       # number of demand (read+write) hits
system.cpu.icache.overall_hits::.cpu.inst      8240282                       # number of overall hits
system.cpu.icache.overall_hits::total         8240282                       # number of overall hits
system.cpu.icache.ReadReq_misses::.cpu.inst         1279                       # number of ReadReq misses
system.cpu.icache.ReadReq_misses::total          1279                       # number of ReadReq misses
system.cpu.icache.demand_misses::.cpu.inst         1279                       # number of demand (read+write) misses
system.cpu.icache.demand_misses::total           1279                       # number of demand (read+write) misses
system.cpu.icache.overall_misses::.cpu.inst         1279                       # number of overall misses
system.cpu.icache.overall_misses::total          1279                       # number of overall misses
system.cpu.icache.ReadReq_miss_latency::.cpu.inst     77046500                       # number of ReadReq miss cycles
system.cpu.icache.ReadReq_miss_latency::total     77046500                       # number of ReadReq miss cycles
system.cpu.icache.demand_miss_latency::.cpu.inst     77046500                       # number of demand (read+write) miss cycles
system.cpu.icache.demand_miss_latency::total     77046500                       # number of demand (read+write) miss cycles
system.cpu.icache.overall_miss_latency::.cpu.inst     77046500                       # number of overall miss cycles
system.cpu.icache.overall_miss_latency::total     77046500                       # number of overall miss cycles
system.cpu.icache.ReadReq_accesses::.cpu.inst      8241561                       # number of ReadReq accesses(hits+misses)
system.cpu.icache.ReadReq_accesses::total      8241561                       # number of ReadReq accesses(hits+misses)
system.cpu.icache.demand_accesses::.cpu.inst      8241561                       # number of demand (read+write) accesses
system.cpu.icache.demand_accesses::total      8241561                       # number of demand (read+write) accesses
system.cpu.icache.overall_accesses::.cpu.inst      8241561                       # number of overall (read+write) accesses
system.cpu.icache.overall_accesses::total      8241561                       # number of overall (read+write) accesses
system.cpu.icache.ReadReq_miss_rate::.cpu.inst     0.000155                       # miss rate for ReadReq accesses
system.cpu.icache.ReadReq_miss_rate::total     0.000155                       # miss rate for ReadReq accesses
system.cpu.icache.demand_miss_rate::.cpu.inst     0.000155                       # miss rate for demand accesses
system.cpu.icache.demand_miss_rate::total     0.000155                       # miss rate for demand accesses
system.cpu.icache.overall_miss_rate::.cpu.inst     0.000155                       # miss rate for overall accesses
system.cpu.icache.overall_miss_rate::total     0.000155                       # miss rate for overall accesses
system.cpu.icache.ReadReq_avg_miss_latency::.cpu.inst 60239.640344                       # average ReadReq miss latency
system.cpu.icache.ReadReq_avg_miss_latency::total 60239.640344                       # average ReadReq miss latency
system.cpu.icache.demand_avg_miss_latency::.cpu.inst 60239.640344                       # average overall miss latency
system.cpu.icache.demand_avg_miss_latency::total 60239.640344                       # average overall miss latency
system.cpu.icache.overall_avg_miss_latency::.cpu.inst 60239.640344                       # average overall miss latency
system.cpu.icache.overall_avg_miss_latency::total 60239.640344                       # average overall miss latency
system.cpu.icache.blocked_cycles::no_mshrs            0                       # number of cycles access was blocked
system.cpu.icache.blocked_cycles::no_targets            0                       # number of cycles access was blocked
system.cpu.icache.blocked::no_mshrs                 0                       # number of cycles access was blocked
system.cpu.icache.blocked::no_targets               0                       # number of cycles access was blocked
system.cpu.icache.avg_blocked_cycles::no_mshrs          nan                       # average number of cycles each access was blocked
system.cpu.icache.avg_blocked_cycles::no_targets          nan                       # average number of cycles each access was blocked
system.cpu.icache.writebacks::.writebacks          780                       # number of writebacks
system.cpu.icache.writebacks::total               780                       # number of writebacks
system.cpu.icache.ReadReq_mshr_misses::.cpu.inst         1279                       # number of ReadReq MSHR misses
system.cpu.icache.ReadReq_mshr_misses::total         1279                       # number of ReadReq MSHR misses
system.cpu.icache.demand_mshr_misses::.cpu.inst         1279                       # number of demand (read+write) MSHR misses
system.cpu.icache.demand_mshr_misses::total         1279                       # number of demand (read+write) MSHR misses
system.cpu.icache.overall_mshr_misses::.cpu.inst         1279                       # number of overall MSHR misses
system.cpu.icache.overall_mshr_misses::total         1279                       # number of overall MSHR misses
system.cpu.icache.ReadReq_mshr_miss_latency::.cpu.inst     75767500                       # number of ReadReq MSHR miss cycles
system.cpu.icache.ReadReq_mshr_miss_latency::total     75767500                       # number of ReadReq MSHR miss cycles
system.cpu.icache.demand_mshr_miss_latency::.cpu.inst     75767500                       # number of demand (read+write) MSHR miss cycles
system.cpu.icache.demand_mshr_miss_latency::total     75767500                       # number of demand (read+write) MSHR miss cycles
system.cpu.icache.overall_mshr_miss_latency::.cpu.inst     75767500                       # number of overall MSHR miss cycles
system.cpu.icache.overall_mshr_miss_latency::total     75767500                       # number of overall MSHR miss cycles
system.cpu.icache.ReadReq_mshr_miss_rate::.cpu.inst     0.000155                       # mshr miss rate for ReadReq accesses
system.cpu.icache.ReadReq_mshr_miss_rate::total     0.000155                       # mshr miss rate for ReadReq accesses
system.cpu.icache.demand_mshr_miss_rate::.cpu.inst     0.000155                       # mshr miss rate for demand accesses
system.cpu.icache.demand_mshr_miss_rate::total     0.000155                       # mshr miss rate for demand accesses
system.cpu.icache.overall_mshr_miss_rate::.cpu.inst     0.000155                       # mshr miss rate for overall accesses
system.cpu.icache.overall_mshr_miss_rate::total     0.000155                       # mshr miss rate for overall accesses
system.cpu.icache.ReadReq_avg_mshr_miss_latency::.cpu.inst 59239.640344                       # average ReadReq mshr miss latency
system.cpu.icache.ReadReq_avg_mshr_miss_latency::total 59239.640344                       # average ReadReq mshr miss latency
system.cpu.icache.demand_avg_mshr_miss_latency::.cpu.inst 59239.640344                       # average overall mshr miss latency
system.cpu.icache.demand_avg_mshr_miss_latency::total 59239.640344                       # average overall mshr miss latency
system.cpu.icache.overall_avg_mshr_miss_latency::.cpu.inst 59239.640344                       # average overall mshr miss latency
system.cpu.icache.overall_avg_mshr_miss_latency::total 59239.640344                       # average overall mshr miss latency
system.cpu.icache.replacements                    780                       # number of replacements
system.cpu.itb_walker_cache.tags.pwrStateResidencyTicks::UNDEFINED  67763982500                       # Cumulative time (in ticks) in various power states
system.cpu.itb_walker_cache.tags.tagsinuse            0                       # Cycle average of tags in use
system.cpu.itb_walker_cache.tags.total_refs            0                       # Total number of references to valid blocks.
system.cpu.itb_walker_cache.tags.sampled_refs            0                       # Sample count of references to valid blocks.
system.cpu.itb_walker_cache.tags.avg_refs          nan                       # Average number of references to valid blocks.
system.cpu.itb_walker_cache.tags.warmup_cycle            0                       # Cycle when the warmup percentage was hit.
system.cpu.itb_walker_cache.tags.tag_accesses            0                       # Number of tag accesses
system.cpu.itb_walker_cache.tags.data_accesses            0                       # Number of data accesses
system.cpu.itb_walker_cache.pwrStateResidencyTicks::UNDEFINED  67763982500                       # Cumulative time (in ticks) in various power states
system.cpu.itb_walker_cache.blocked_cycles::no_mshrs            0                       # number of cycles access was blocked
system.cpu.itb_walker_cache.blocked_cycles::no_targets            0                       # number of cycles access was blocked
system.cpu.itb_walker_cache.blocked::no_mshrs            0                       # number of cycles access was blocked
system.cpu.itb_walker_cache.blocked::no_targets            0                       # number of cycles access was blocked
system.cpu.itb_walker_cache.avg_blocked_cycles::no_mshrs          nan                       # average number of cycles each access was blocked
system.cpu.itb_walker_cache.avg_blocked_cycles::no_targets          nan                       # average number of cycles each access was blocked
system.cpu.itb_walker_cache.replacements            0                       # number of replacements
system.l2.tags.pwrStateResidencyTicks::UNDEFINED  67763982500                       # Cumulative time (in ticks) in various power states
system.l2.tags.tagsinuse                  1662.815740                       # Cycle average of tags in use
system.l2.tags.total_refs                        5246                       # Total number of references to valid blocks.
system.l2.tags.sampled_refs                      1886                       # Sample count of references to valid blocks.
system.l2.tags.avg_refs                      2.781548                       # Average number of references to valid blocks.
system.l2.tags.warmup_cycle                     77000                       # Cycle when the warmup percentage was hit.
system.l2.tags.occ_blocks::.cpu.inst       644.669635                       # Average occupied blocks per requestor
system.l2.tags.occ_blocks::.cpu.data      1018.146105                       # Average occupied blocks per requestor
system.l2.tags.occ_percent::.cpu.inst        0.019674                       # Average percentage of cache occupancy
system.l2.tags.occ_percent::.cpu.data        0.031071                       # Average percentage of cache occupancy
system.l2.tags.occ_percent::total            0.050745                       # Average percentage of cache occupancy
system.l2.tags.occ_task_id_blocks::1024          1882                       # Occupied blocks per task id
system.l2.tags.age_task_id_blocks_1024::0           60                       # Occupied blocks per task id
system.l2.tags.age_task_id_blocks_1024::1            4                       # Occupied blocks per task id
system.l2.tags.age_task_id_blocks_1024::2          140                       # Occupied blocks per task id
system.l2.tags.age_task_id_blocks_1024::4         1678                       # Occupied blocks per task id
system.l2.tags.occ_task_id_percent::1024     0.057434                       # Percentage of cache occupancy per task id
system.l2.tags.tag_accesses                     43854                       # Number of tag accesses
system.l2.tags.data_accesses                    43854                       # Number of data accesses
system.l2.pwrStateResidencyTicks::UNDEFINED  67763982500                       # Cumulative time (in ticks) in various power states
system.l2.WritebackDirty_hits::.writebacks         1148                       # number of WritebackDirty hits
system.l2.WritebackDirty_hits::total             1148                       # number of WritebackDirty hits
system.l2.WritebackClean_hits::.writebacks          780                       # number of WritebackClean hits
system.l2.WritebackClean_hits::total              780                       # number of WritebackClean hits
system.l2.ReadExReq_hits::.cpu.data               503                       # number of ReadExReq hits
system.l2.ReadExReq_hits::total                   503                       # number of ReadExReq hits
system.l2.ReadCleanReq_hits::.cpu.inst            463                       # number of ReadCleanReq hits
system.l2.ReadCleanReq_hits::total                463                       # number of ReadCleanReq hits
system.l2.ReadSharedReq_hits::.cpu.data           279                       # number of ReadSharedReq hits
system.l2.ReadSharedReq_hits::total               279                       # number of ReadSharedReq hits
system.l2.demand_hits::.cpu.inst                  463                       # number of demand (read+write) hits
system.l2.demand_hits::.cpu.data                  782                       # number of demand (read+write) hits
system.l2.demand_hits::total                     1245                       # number of demand (read+write) hits
system.l2.overall_hits::.cpu.inst                 463                       # number of overall hits
system.l2.overall_hits::.cpu.data                 782                       # number of overall hits
system.l2.overall_hits::total                    1245                       # number of overall hits
system.l2.ReadExReq_misses::.cpu.data             797                       # number of ReadExReq misses
system.l2.ReadExReq_misses::total                 797                       # number of ReadExReq misses
system.l2.ReadCleanReq_misses::.cpu.inst          816                       # number of ReadCleanReq misses
system.l2.ReadCleanReq_misses::total              816                       # number of ReadCleanReq misses
system.l2.ReadSharedReq_misses::.cpu.data          273                       # number of ReadSharedReq misses
system.l2.ReadSharedReq_misses::total             273                       # number of ReadSharedReq misses
system.l2.demand_misses::.cpu.inst                816                       # number of demand (read+write) misses
system.l2.demand_misses::.cpu.data               1070                       # number of demand (read+write) misses
system.l2.demand_misses::total                   1886                       # number of demand (read+write) misses
system.l2.overall_misses::.cpu.inst               816                       # number of overall misses
system.l2.overall_misses::.cpu.data              1070                       # number of overall misses
system.l2.overall_misses::total                  1886                       # number of overall misses
system.l2.ReadExReq_miss_latency::.cpu.data     74312500                       # number of ReadExReq miss cycles
system.l2.ReadExReq_miss_latency::total      74312500                       # number of ReadExReq miss cycles
system.l2.ReadCleanReq_miss_latency::.cpu.inst     68977000                       # number of ReadCleanReq miss cycles
system.l2.ReadCleanReq_miss_latency::total     68977000                       # number of ReadCleanReq miss cycles
system.l2.ReadSharedReq_miss_latency::.cpu.data     90596500                       # number of ReadSharedReq miss cycles
system.l2.ReadSharedReq_miss_latency::total     90596500                       # number of ReadSharedReq miss cycles
system.l2.demand_miss_latency::.cpu.inst     68977000                       # number of demand (read+write) miss cycles
system.l2.demand_miss_latency::.cpu.data    164909000                       # number of demand (read+write) miss cycles
system.l2.demand_miss_latency::total        233886000                       # number of demand (read+write) miss cycles
system.l2.overall_miss_latency::.cpu.inst     68977000                       # number of overall miss cycles
system.l2.overall_miss_latency::.cpu.data    164909000                       # number of overall miss cycles
system.l2.overall_miss_latency::total       233886000                       # number of overall miss cycles
system.l2.WritebackDirty_accesses::.writebacks         1148                       # number of WritebackDirty accesses(hits+misses)
system.l2.WritebackDirty_accesses::total         1148                       # number of WritebackDirty accesses(hits+misses)
system.l2.WritebackClean_accesses::.writebacks          780                       # number of WritebackClean accesses(hits+misses)
system.l2.WritebackClean_accesses::total          780                       # number of WritebackClean accesses(hits+misses)
system.l2.ReadExReq_accesses::.cpu.data          1300                       # number of ReadExReq accesses(hits+misses)
system.l2.ReadExReq_accesses::total              1300                       # number of ReadExReq accesses(hits+misses)
system.l2.ReadCleanReq_accesses::.cpu.inst         1279                       # number of ReadCleanReq accesses(hits+misses)
system.l2.ReadCleanReq_accesses::total           1279                       # number of ReadCleanReq accesses(hits+misses)
system.l2.ReadSharedReq_accesses::.cpu.data          552                       # number of ReadSharedReq accesses(hits+misses)
system.l2.ReadSharedReq_accesses::total           552                       # number of ReadSharedReq accesses(hits+misses)
system.l2.demand_accesses::.cpu.inst             1279                       # number of demand (read+write) accesses
system.l2.demand_accesses::.cpu.data             1852                       # number of demand (read+write) accesses
system.l2.demand_accesses::total                 3131                       # number of demand (read+write) accesses
system.l2.overall_accesses::.cpu.inst            1279                       # number of overall (read+write) accesses
system.l2.overall_accesses::.cpu.data            1852                       # number of overall (read+write) accesses
system.l2.overall_accesses::total                3131                       # number of overall (read+write) accesses
system.l2.ReadExReq_miss_rate::.cpu.data     0.613077                       # miss rate for ReadExReq accesses
system.l2.ReadExReq_miss_rate::total         0.613077                       # miss rate for ReadExReq accesses
system.l2.ReadCleanReq_miss_rate::.cpu.inst     0.637998                       # miss rate for ReadCleanReq accesses
system.l2.ReadCleanReq_miss_rate::total      0.637998                       # miss rate for ReadCleanReq accesses
system.l2.ReadSharedReq_miss_rate::.cpu.data     0.494565                       # miss rate for ReadSharedReq accesses
system.l2.ReadSharedReq_miss_rate::total     0.494565                       # miss rate for ReadSharedReq accesses
system.l2.demand_miss_rate::.cpu.inst        0.637998                       # miss rate for demand accesses
system.l2.demand_miss_rate::.cpu.data        0.577754                       # miss rate for demand accesses
system.l2.demand_miss_rate::total            0.602363                       # miss rate for demand accesses
system.l2.overall_miss_rate::.cpu.inst       0.637998                       # miss rate for overall accesses
system.l2.overall_miss_rate::.cpu.data       0.577754                       # miss rate for overall accesses
system.l2.overall_miss_rate::total           0.602363                       # miss rate for overall accesses
system.l2.ReadExReq_avg_miss_latency::.cpu.data 93240.276035                       # average ReadExReq miss latency
system.l2.ReadExReq_avg_miss_latency::total 93240.276035                       # average ReadExReq miss latency
system.l2.ReadCleanReq_avg_miss_latency::.cpu.inst 84530.637255                       # average ReadCleanReq miss latency
system.l2.ReadCleanReq_avg_miss_latency::total 84530.637255                       # average ReadCleanReq miss latency
system.l2.ReadSharedReq_avg_miss_latency::.cpu.data 331855.311355                       # average ReadSharedReq miss latency
system.l2.ReadSharedReq_avg_miss_latency::total 331855.311355                       # average ReadSharedReq miss latency
system.l2.demand_avg_miss_latency::.cpu.inst 84530.637255                       # average overall miss latency
system.l2.demand_avg_miss_latency::.cpu.data 154120.560748                       # average overall miss latency
system.l2.demand_avg_miss_latency::total 124011.664899                       # average overall miss latency
system.l2.overall_avg_miss_latency::.cpu.inst 84530.637255                       # average overall miss latency
system.l2.overall_avg_miss_latency::.cpu.data 154120.560748                       # average overall miss latency
system.l2.overall_avg_miss_latency::total 124011.664899                       # average overall miss latency
system.l2.blocked_cycles::no_mshrs                  0                       # number of cycles access was blocked
system.l2.blocked_cycles::no_targets                0                       # number of cycles access was blocked
system.l2.blocked::no_mshrs                         0                       # number of cycles access was blocked
system.l2.blocked::no_targets                       0                       # number of cycles access was blocked
system.l2.avg_blocked_cycles::no_mshrs            nan                       # average number of cycles each access was blocked
system.l2.avg_blocked_cycles::no_targets          nan                       # average number of cycles each access was blocked
system.l2.ReadExReq_mshr_misses::.cpu.data          797                       # number of ReadExReq MSHR misses
system.l2.ReadExReq_mshr_misses::total            797                       # number of ReadExReq MSHR misses
system.l2.ReadCleanReq_mshr_misses::.cpu.inst          816                       # number of ReadCleanReq MSHR misses
system.l2.ReadCleanReq_mshr_misses::total          816                       # number of ReadCleanReq MSHR misses
system.l2.ReadSharedReq_mshr_misses::.cpu.data          273                       # number of ReadSharedReq MSHR misses
system.l2.ReadSharedReq_mshr_misses::total          273                       # number of ReadSharedReq MSHR misses
system.l2.demand_mshr_misses::.cpu.inst           816                       # number of demand (read+write) MSHR misses
system.l2.demand_mshr_misses::.cpu.data          1070                       # number of demand (read+write) MSHR misses
system.l2.demand_mshr_misses::total              1886                       # number of demand (read+write) MSHR misses
system.l2.overall_mshr_misses::.cpu.inst          816                       # number of overall MSHR misses
system.l2.overall_mshr_misses::.cpu.data         1070                       # number of overall MSHR misses
system.l2.overall_mshr_misses::total             1886                       # number of overall MSHR misses
system.l2.ReadExReq_mshr_miss_latency::.cpu.data     66342500                       # number of ReadExReq MSHR miss cycles
system.l2.ReadExReq_mshr_miss_latency::total     66342500                       # number of ReadExReq MSHR miss cycles
system.l2.ReadCleanReq_mshr_miss_latency::.cpu.inst     60817000                       # number of ReadCleanReq MSHR miss cycles
system.l2.ReadCleanReq_mshr_miss_latency::total     60817000                       # number of ReadCleanReq MSHR miss cycles
system.l2.ReadSharedReq_mshr_miss_latency::.cpu.data     87866500                       # number of ReadSharedReq MSHR miss cycles
system.l2.ReadSharedReq_mshr_miss_latency::total     87866500                       # number of ReadSharedReq MSHR miss cycles
system.l2.demand_mshr_miss_latency::.cpu.inst     60817000                       # number of demand (read+write) MSHR miss cycles
system.l2.demand_mshr_miss_latency::.cpu.data    154209000                       # number of demand (read+write) MSHR miss cycles
system.l2.demand_mshr_miss_latency::total    215026000                       # number of demand (read+write) MSHR miss cycles
system.l2.overall_mshr_miss_latency::.cpu.inst     60817000                       # number of overall MSHR miss cycles
system.l2.overall_mshr_miss_latency::.cpu.data    154209000                       # number of overall MSHR miss cycles
system.l2.overall_mshr_miss_latency::total    215026000                       # number of overall MSHR miss cycles
system.l2.ReadExReq_mshr_miss_rate::.cpu.data     0.613077                       # mshr miss rate for ReadExReq accesses
system.l2.ReadExReq_mshr_miss_rate::total     0.613077                       # mshr miss rate for ReadExReq accesses
system.l2.ReadCleanReq_mshr_miss_rate::.cpu.inst     0.637998                       # mshr miss rate for ReadCleanReq accesses
system.l2.ReadCleanReq_mshr_miss_rate::total     0.637998                       # mshr miss rate for ReadCleanReq accesses
system.l2.ReadSharedReq_mshr_miss_rate::.cpu.data     0.494565                       # mshr miss rate for ReadSharedReq accesses
system.l2.ReadSharedReq_mshr_miss_rate::total     0.494565                       # mshr miss rate for ReadSharedReq accesses
system.l2.demand_mshr_miss_rate::.cpu.inst     0.637998                       # mshr miss rate for demand accesses
system.l2.demand_mshr_miss_rate::.cpu.data     0.577754                       # mshr miss rate for demand accesses
system.l2.demand_mshr_miss_rate::total       0.602363                       # mshr miss rate for demand accesses
system.l2.overall_mshr_miss_rate::.cpu.inst     0.637998                       # mshr miss rate for overall accesses
system.l2.overall_mshr_miss_rate::.cpu.data     0.577754                       # mshr miss rate for overall accesses
system.l2.overall_mshr_miss_rate::total      0.602363                       # mshr miss rate for overall accesses
system.l2.ReadExReq_avg_mshr_miss_latency::.cpu.data 83240.276035                       # average ReadExReq mshr miss latency
system.l2.ReadExReq_avg_mshr_miss_latency::total 83240.276035                       # average ReadExReq mshr miss latency
system.l2.ReadCleanReq_avg_mshr_miss_latency::.cpu.inst 74530.637255                       # average ReadCleanReq mshr miss latency
system.l2.ReadCleanReq_avg_mshr_miss_latency::total 74530.637255                       # average ReadCleanReq mshr miss latency
system.l2.ReadSharedReq_avg_mshr_miss_latency::.cpu.data 321855.311355                       # average ReadSharedReq mshr miss latency
system.l2.ReadSharedReq_avg_mshr_miss_latency::total 321855.311355                       # average ReadSharedReq mshr miss latency
system.l2.demand_avg_mshr_miss_latency::.cpu.inst 74530.637255                       # average overall mshr miss latency
system.l2.demand_avg_mshr_miss_latency::.cpu.data 144120.560748                       # average overall mshr miss latency
system.l2.demand_avg_mshr_miss_latency::total 114011.664899                       # average overall mshr miss latency
system.l2.overall_avg_mshr_miss_latency::.cpu.inst 74530.637255                       # average overall mshr miss latency
system.l2.overall_avg_mshr_miss_latency::.cpu.data 144120.560748                       # average overall mshr miss latency
system.l2.overall_avg_mshr_miss_latency::total 114011.664899                       # average overall mshr miss latency
system.l2.replacements                              0                       # number of replacements
system.membus.snoop_filter.tot_requests          1892                       # Total number of requests made to the snoop filter.
system.membus.snoop_filter.hit_single_requests           10                       # Number of requests hitting in the snoop filter with a single holder of the requested data.
system.membus.snoop_filter.hit_multi_requests            0                       # Number of requests hitting in the snoop filter with multiple (>1) holders of the requested data.
system.membus.snoop_filter.tot_snoops               0                       # Total number of snoops made to the snoop filter.
system.membus.snoop_filter.hit_single_snoops            0                       # Number of snoops hitting in the snoop filter with a single holder of the requested data.
system.membus.snoop_filter.hit_multi_snoops            0                       # Number of snoops hitting in the snoop filter with multiple (>1) holders of the requested data.
system.membus.pwrStateResidencyTicks::UNDEFINED  67763982500                       # Cumulative time (in ticks) in various power states
system.membus.trans_dist::ReadResp               1089                       # Transaction distribution
system.membus.trans_dist::ReadExReq               797                       # Transaction distribution
system.membus.trans_dist::ReadExResp              797                       # Transaction distribution
system.membus.trans_dist::ReadSharedReq          1089                       # Transaction distribution
system.membus.trans_dist::PIMRead                   4                       # Transaction distribution
system.membus.trans_dist::PIMWrite                  2                       # Transaction distribution
system.membus.trans_dist::PIMReadResp               4                       # Transaction distribution
system.membus.trans_dist::PIMWriteResp              2                       # Transaction distribution
system.membus.pkt_count_system.pim_kernerls.master_port::system.mem_ctrls.port           12                       # Packet count per connected master and slave (bytes)
system.membus.pkt_count_system.pim_kernerls.master_port::total           12                       # Packet count per connected master and slave (bytes)
system.membus.pkt_count_system.l2.mem_side::system.mem_ctrls.port         3772                       # Packet count per connected master and slave (bytes)
system.membus.pkt_count_system.l2.mem_side::total         3772                       # Packet count per connected master and slave (bytes)
system.membus.pkt_count::total                   3784                       # Packet count per connected master and slave (bytes)
system.membus.pkt_size_system.pim_kernerls.master_port::system.mem_ctrls.port           48                       # Cumulative packet size per connected master and slave (bytes)
system.membus.pkt_size_system.pim_kernerls.master_port::total           48                       # Cumulative packet size per connected master and slave (bytes)
system.membus.pkt_size_system.l2.mem_side::system.mem_ctrls.port       120704                       # Cumulative packet size per connected master and slave (bytes)
system.membus.pkt_size_system.l2.mem_side::total       120704                       # Cumulative packet size per connected master and slave (bytes)
system.membus.pkt_size::total                  120752                       # Cumulative packet size per connected master and slave (bytes)
system.membus.snoops                                0                       # Total snoops (count)
system.membus.snoopTraffic                          0                       # Total snoop traffic (bytes)
system.membus.snoop_fanout::samples              1886                       # Request fanout histogram
system.membus.snoop_fanout::mean                    0                       # Request fanout histogram
system.membus.snoop_fanout::stdev                   0                       # Request fanout histogram
system.membus.snoop_fanout::underflows              0      0.00%      0.00% # Request fanout histogram
system.membus.snoop_fanout::0                    1886    100.00%    100.00% # Request fanout histogram
system.membus.snoop_fanout::1                       0      0.00%    100.00% # Request fanout histogram
system.membus.snoop_fanout::overflows               0      0.00%    100.00% # Request fanout histogram
system.membus.snoop_fanout::min_value               0                       # Request fanout histogram
system.membus.snoop_fanout::max_value               0                       # Request fanout histogram
system.membus.snoop_fanout::total                1886                       # Request fanout histogram
system.membus.reqLayer1.occupancy             1916000                       # Layer occupancy (ticks)
system.membus.reqLayer1.utilization               0.0                       # Layer utilization (%)
system.membus.respLayer0.occupancy              11000                       # Layer occupancy (ticks)
system.membus.respLayer0.utilization              0.0                       # Layer utilization (%)
system.membus.respLayer1.occupancy           10020750                       # Layer occupancy (ticks)
system.membus.respLayer1.utilization              0.0                       # Layer utilization (%)
system.tol2bus.snoop_filter.tot_requests         5247                       # Total number of requests made to the snoop filter.
system.tol2bus.snoop_filter.hit_single_requests         2120                       # Number of requests hitting in the snoop filter with a single holder of the requested data.
system.tol2bus.snoop_filter.hit_multi_requests            1                       # Number of requests hitting in the snoop filter with multiple (>1) holders of the requested data.
system.tol2bus.snoop_filter.tot_snoops              0                       # Total number of snoops made to the snoop filter.
system.tol2bus.snoop_filter.hit_single_snoops            0                       # Number of snoops hitting in the snoop filter with a single holder of the requested data.
system.tol2bus.snoop_filter.hit_multi_snoops            0                       # Number of snoops hitting in the snoop filter with multiple (>1) holders of the requested data.
system.tol2bus.pwrStateResidencyTicks::UNDEFINED  67763982500                       # Cumulative time (in ticks) in various power states
system.tol2bus.trans_dist::ReadResp              1831                       # Transaction distribution
system.tol2bus.trans_dist::WritebackDirty         1148                       # Transaction distribution
system.tol2bus.trans_dist::WritebackClean          780                       # Transaction distribution
system.tol2bus.trans_dist::CleanEvict             188                       # Transaction distribution
system.tol2bus.trans_dist::ReadExReq             1300                       # Transaction distribution
system.tol2bus.trans_dist::ReadExResp            1300                       # Transaction distribution
system.tol2bus.trans_dist::ReadCleanReq          1279                       # Transaction distribution
system.tol2bus.trans_dist::ReadSharedReq          552                       # Transaction distribution
system.tol2bus.pkt_count_system.cpu.icache.mem_side::system.l2.cpu_side         3338                       # Packet count per connected master and slave (bytes)
system.tol2bus.pkt_count_system.cpu.dcache.mem_side::system.l2.cpu_side         5040                       # Packet count per connected master and slave (bytes)
system.tol2bus.pkt_count::total                  8378                       # Packet count per connected master and slave (bytes)
system.tol2bus.pkt_size_system.cpu.icache.mem_side::system.l2.cpu_side       131776                       # Cumulative packet size per connected master and slave (bytes)
system.tol2bus.pkt_size_system.cpu.dcache.mem_side::system.l2.cpu_side       192000                       # Cumulative packet size per connected master and slave (bytes)
system.tol2bus.pkt_size::total                 323776                       # Cumulative packet size per connected master and slave (bytes)
system.tol2bus.snoops                               0                       # Total snoops (count)
system.tol2bus.snoopTraffic                         0                       # Total snoop traffic (bytes)
system.tol2bus.snoop_fanout::samples             3131                       # Request fanout histogram
system.tol2bus.snoop_fanout::mean            0.000319                       # Request fanout histogram
system.tol2bus.snoop_fanout::stdev           0.017871                       # Request fanout histogram
system.tol2bus.snoop_fanout::underflows             0      0.00%      0.00% # Request fanout histogram
system.tol2bus.snoop_fanout::0                   3130     99.97%     99.97% # Request fanout histogram
system.tol2bus.snoop_fanout::1                      1      0.03%    100.00% # Request fanout histogram
system.tol2bus.snoop_fanout::2                      0      0.00%    100.00% # Request fanout histogram
system.tol2bus.snoop_fanout::3                      0      0.00%    100.00% # Request fanout histogram
system.tol2bus.snoop_fanout::4                      0      0.00%    100.00% # Request fanout histogram
system.tol2bus.snoop_fanout::overflows              0      0.00%    100.00% # Request fanout histogram
system.tol2bus.snoop_fanout::min_value              0                       # Request fanout histogram
system.tol2bus.snoop_fanout::max_value              1                       # Request fanout histogram
system.tol2bus.snoop_fanout::total               3131                       # Request fanout histogram
system.tol2bus.reqLayer0.occupancy            4551500                       # Layer occupancy (ticks)
system.tol2bus.reqLayer0.utilization              0.0                       # Layer utilization (%)
system.tol2bus.respLayer0.occupancy           1918500                       # Layer occupancy (ticks)
system.tol2bus.respLayer0.utilization             0.0                       # Layer utilization (%)
system.tol2bus.respLayer1.occupancy           2778000                       # Layer occupancy (ticks)
system.tol2bus.respLayer1.utilization             0.0                       # Layer utilization (%)

---------- End Simulation Statistics   ----------
